Version 4
SHEET 1 880 680
WIRE 240 -160 208 -160
WIRE 336 -160 320 -160
WIRE 352 -160 336 -160
WIRE 480 -160 416 -160
WIRE 480 -144 480 -160
WIRE 32 64 0 64
WIRE 144 64 112 64
WIRE 160 64 144 64
WIRE 288 64 224 64
WIRE 32 192 0 192
WIRE 144 192 112 192
WIRE 160 192 144 192
WIRE 288 192 288 64
WIRE 288 192 224 192
WIRE 416 192 288 192
WIRE 416 224 416 192
WIRE 32 336 0 336
WIRE 144 336 112 336
WIRE 160 336 144 336
WIRE 288 336 288 192
WIRE 288 336 224 336
FLAG -80 64 0
FLAG 416 224 0
FLAG 144 64 Grn
FLAG 144 192 Blu
FLAG 144 336 Red
FLAG -80 192 0
FLAG -80 336 0
FLAG 480 -144 0
FLAG 128 -160 0
FLAG 336 -160 pin1
SYMBOL LED 160 80 R270
WINDOW 0 72 32 VTop 2
WINDOW 3 0 32 VBottom 2
SYMATTR InstName D1
SYMBOL LED 160 208 R270
WINDOW 0 72 32 VTop 2
WINDOW 3 0 32 VBottom 2
SYMATTR InstName D2
SYMBOL LED 160 352 R270
WINDOW 0 72 32 VTop 2
WINDOW 3 0 32 VBottom 2
SYMATTR InstName D3
SYMBOL res 128 48 R90
WINDOW 0 0 56 VBottom 2
WINDOW 3 32 56 VTop 2
SYMATTR InstName R1
SYMATTR Value 1k
SYMBOL res 128 176 R90
WINDOW 0 0 56 VBottom 2
WINDOW 3 32 56 VTop 2
SYMATTR InstName R2
SYMATTR Value 1k
SYMBOL res 128 320 R90
WINDOW 0 0 56 VBottom 2
WINDOW 3 32 56 VTop 2
SYMATTR InstName R3
SYMATTR Value 1k
SYMBOL voltage 16 64 R90
WINDOW 123 0 0 Left 0
WINDOW 39 0 0 Left 0
SYMATTR InstName V1
SYMATTR Value 5
SYMBOL voltage 16 192 R90
WINDOW 123 0 0 Left 0
WINDOW 39 0 0 Left 0
SYMATTR InstName V2
SYMATTR Value 5
SYMBOL voltage 16 336 R90
WINDOW 123 0 0 Left 0
WINDOW 39 0 0 Left 0
SYMATTR InstName V3
SYMATTR Value 5
SYMBOL LED 352 -144 R270
WINDOW 0 72 32 VTop 2
WINDOW 3 0 32 VBottom 2
SYMATTR InstName D4
SYMBOL res 336 -176 R90
WINDOW 0 0 56 VBottom 2
WINDOW 3 32 56 VTop 2
SYMATTR InstName R5
SYMATTR Value 150
SYMBOL voltage 224 -160 R90
WINDOW 0 -32 56 VBottom 2
WINDOW 3 32 56 VTop 2
WINDOW 123 0 0 Left 0
WINDOW 39 0 0 Left 0
SYMATTR InstName V4
SYMATTR Value 3.3
TEXT 272 416 Left 2 !.op 0 500n 0 10p
